output/ny_only_package_a/native_generator_map.csv
source_gen_row,source_bus,source_generator_id,device_key,source_device_role,source_zone,canonical_status,raw_status,raw_gen_row,raw_ireg,regulated_bus,source_pg_mw,source_qg_mvar,source_pmin_mw,source_pmax_mw,source_qmin_mvar,source_qmax_mvar,source_voltage_target_pu,source_gen_type,source_gen_fuel,source_eia_plant_code,source_eia_unit_key,native_generation_member,q_bounds_are_placeholder,raw_canonical_status_mismatch,recommended_treatment,role_evidence,canonical_regulated_bus,raw_remote_control_omitted,native_gen_row
1,6,1,PERFORM2019:GEN:6:1,native_generation,F,1,1,1,0,6,2.744616,-0.209143,1,2.8,-1.5,1.8,1.02,"HY (Hydro)",hydro,2685,2685-1,1,0,0,retain_native_P_Q_bounds_status_and_explicit_voltage_policy,canonical_fuel_type_and_RAW_bus_unit_ID,6,0,1
2,6,2,PERFORM2019:GEN:6:2,native_generation,F,1,1,2,0,6,2.744616,-0.209143,1,2.8,-1.5,1.8,1.02,"HY (Hydro)",hydro,2685,2685-2,1,0,0,retain_native_P_Q_bounds_status_and_explicit_voltage_policy,canonical_fuel_type_and_RAW_bus_unit_ID,6,0,2
3,6,3,PERFORM2019:GEN:6:3,native_generation,F,1,1,3,0,6,2.94066,-0.209143,1,3,-1.7,2,1.02,"HY (Hydro)",hydro,2685,2685-3,1,0,0,retain_native_P_Q_bounds_status_and_explicit_voltage_policy,canonical_fuel_type_and_RAW_bus_unit_ID,6,0,3
4,6,4,PERFORM2019:GEN:6:4,native_generation,F,1,1,4,0,6,2.94066,-0.209143,1,3,-1.7,2,1.02,"HY (Hydro)",hydro,2685,2685-4,1,0,0,retain_native_P_Q_bounds_status_and_explicit_voltage_policy,canonical_fuel_type_and_RAW_bus_unit_ID,6,0,4
5,15,1,PERFORM2019:GEN:15:1,native_generation,E,1,1,5,0,15,7.841761,-1.256166,7,8,-4.4,5.2,1.02,"HY (Hydro)",hydro,2548,2548-1,1,0,0,retain_native_P_Q_bounds_status_and_explicit_voltage_policy,canonical_fuel_type_and_RAW_bus_unit_ID,15,0,5
6,15,2,PERFORM2019:GEN:15:2,native_generation,E,1,1,6,0,15,7.841761,-1.256166,7,8,-4.4,5.2,1.02,"HY (Hydro)",hydro,2548,2548-2,1,0,0,retain_native_P_Q_bounds_status_and_explicit_voltage_policy,canonical_fuel_type_and_RAW_bus_unit_ID,15,0,6
7,17,1,PERFORM2019:GEN:17:1,native_generation,K,0,0,7,0,17,0,0,10.5,18.000001,-9.9,11.7,1.01,"GT (Gas Turbine)",ng,2511,2511-3,1,0,0,retain_native_P_Q_bounds_status_and_explicit_voltage_policy,canonical_fuel_type_and_RAW_bus_unit_ID,17,0,7
8,17,2,PERFORM2019:GEN:17:2,native_generation,K,1,1,12,0,17,11.4,-9.9,11.4,18.000001,-9.9,11.7,1.01,"GT (Gas Turbine)",ng,2511,2511-4,1,0,0,retain_native_P_Q_bounds_status_and_explicit_voltage_policy,canonical_fuel_type_and_RAW_bus_unit_ID,17,0,8
9,17,3,PERFORM2019:GEN:17:3,native_generation,K,1,1,13,0,17,11,-9.9,11,18.000001,-9.9,11.7,1.01,"GT (Gas Turbine)",ng,2511,2511-5,1,0,0,retain_native_P_Q_bounds_status_and_explicit_voltage_policy,canonical_fuel_type_and_RAW_bus_unit_ID,17,0,9
10,17,4,PERFORM2019:GEN:17:4,native_generation,K,1,1,14,0,17,11.2,-9.9,11.2,18.000001,-9.9,11.7,1.01,"GT (Gas Turbine)",ng,2511,2511-6,1,0,0,retain_native_P_Q_bounds_status_and_explicit_voltage_policy,canonical_fuel_type_and_RAW_bus_unit_ID,17,0,10
11,17,5,PERFORM2019:GEN:17:5,native_generation,K,1,1,15,0,17,11.4,-9.9,11.4,18.000001,-9.9,11.7,1.01,"GT (Gas Turbine)",ng,2511,2511-8,1,0,0,retain_native_P_Q_bounds_status_and_explicit_voltage_policy,canonical_fuel_type_and_RAW_bus_unit_ID,17,0,11
12,17,6,PERFORM2019:GEN:17:6,native_generation,K,1,1,16,0,17,10.7,-9.9,10.7,18.000001,-9.9,11.7,1.01,"GT (Gas Turbine)",ng,2511,2511-GT1,1,0,0,retain_native_P_Q_bounds_status_and_explicit_voltage_policy,canonical_fuel_type_and_RAW_bus_unit_ID,17,0,12
13,17,7,PERFORM2019:GEN:17:7,native_generation,K,1,1,17,0,17,9,-9.9,9,18.000001,-9.9,11.7,1.01,"GT (Gas Turbine)",ng,2511,2511-GT2,1,0,0,retain_native_P_Q_bounds_status_and_explicit_voltage_policy,canonical_fuel_type_and_RAW_bus_unit_ID,17,0,13
14,17,8,PERFORM2019:GEN:17:8,native_generation,K,1,1,18,0,17,29.800001,-23,29.800001,41.800001,-23,27.200001,1.01,"GT (Gas Turbine)",ng,2511,2511-9,1,0,0,retain_native_P_Q_bounds_status_and_explicit_voltage_policy,canonical_fuel_type_and_RAW_bus_unit_ID,17,0,14
15,17,9,PERFORM2019:GEN:17:9,native_generation,K,0,0,19,0,17,0,0,30.000001,41.800001,-23,27.200001,1.01,"GT (Gas Turbine)",ng,2511,2511-10,1,0,0,retain_native_P_Q_bounds_status_and_explicit_voltage_policy,canonical_fuel_type_and_RAW_bus_unit_ID,17,0,15
16,17,10,PERFORM2019:GEN:17:10,native_generation,K,0,0,8,0,17,0,0,30.000001,41.800001,-23,27.200001,1.01,"GT (Gas Turbine)",ng,2511,2511-11,1,0,0,retain_native_P_Q_bounds_status_and_explicit_voltage_policy,canonical_fuel_type_and_RAW_bus_unit_ID,17,0,16
17,17,11,PERFORM2019:GEN:17:11,native_generation,K,1,1,9,0,17,30.000001,-23,30.000001,41.800001,-23,27.200001,1.01,"GT (Gas Turbine)",ng,2511,2511-12,1,0,0,retain_native_P_Q_bounds_status_and_explicit_voltage_policy,canonical_fuel_type_and_RAW_bus_unit_ID,17,0,17
18,17,12,PERFORM2019:GEN:17:12,native_generation,K,1,1,10,0,17,183.000004,-30.697578,15.000001,188,-103.400004,122.2,1.01,"ST (Steam Turbine)",ng,2511,2511-ST1,1,0,0,retain_native_P_Q_bounds_status_and_explicit_voltage_policy,canonical_fuel_type_and_RAW_bus_unit_ID,17,0,18
19,17,13,PERFORM2019:GEN:17:13,native_generation,K,1,1,11,0,17,183.000004,-30.697578,15.000001,188,-103.400004,122.2,1.01,"ST (Steam Turbine)",ng,2511,2511-ST2,1,0,0,retain_native_P_Q_bounds_status_and_explicit_voltage_policy,canonical_fuel_type_and_RAW_bus_unit_ID,17,0,19
20,18,1,PERFORM2019:GEN:18:1,native_generation,K,1,1,20,0,18,15.898612,-8.8,10,16,-8.8,10.4,1.01,"GT (Gas Turbine)",dfo,7869,7869-GT1,1,0,0,retain_native_P_Q_bounds_status_and_explicit_voltage_policy,canonical_fuel_type_and_RAW_bus_unit_ID,18,0,20
21,18,2,PERFORM2019:GEN:18:2,native_generation,K,1,1,21,0,18,52.664155,-18.347043,37,52.999997,-29.2,34.5,1.01,"GT (Gas Turbine)",ng,7869,7869-GT4,1,0,0,retain_native_P_Q_bounds_status_and_explicit_voltage_policy,canonical_fuel_type_and_RAW_bus_unit_ID,18,0,21
22,18,3,PERFORM2019:GEN:18:3,native_generation,K,1,1,22,0,18,52.664155,-18.347043,37,52.999997,-29.2,34.5,1.01,"GT (Gas Turbine)",ng,7869,7869-GT5,1,0,0,retain_native_P_Q_bounds_status_and_explicit_voltage_policy,canonical_fuel_type_and_RAW_bus_unit_ID,18,0,22
23,18,4,PERFORM2019:GEN:18:4,native_generation,K,1,1,23,0,18,54.651493,-18.347043,40.000001,55.000001,-30.3,35.800001,1.01,"GT (Gas Turbine)",dfo,2514,2514-GT2,1,0,0,retain_native_P_Q_bounds_status_and_explicit_voltage_policy,canonical_fuel_type_and_RAW_bus_unit_ID,18,0,23
24,18,5,PERFORM2019:GEN:18:5,native_generation,K,0,0,24,0,18,0,0,44.100001,55.000001,-30.3,35.800001,1.01,"GT (Gas Turbine)",ng,2514,2514-GT3,1,0,0,retain_native_P_Q_bounds_status_and_explicit_voltage_policy,canonical_fuel_type_and_RAW_bus_unit_ID,18,0,24
25,19,1,PERFORM2019:GEN:19:1,native_generation,K,1,1,25,0,19,15.898612,-8.8,10.6,16,-8.8,10.4,1.02,"GT (Gas Turbine)",dfo,2516,2516-GT1,1,0,0,retain_native_P_Q_bounds_status_and_explicit_voltage_policy,canonical_fuel_type_and_RAW_bus_unit_ID,19,0,25
26,19,2,PERFORM2019:GEN:19:2,native_generation,K,0,0,26,0,19,0,0,40.000001,386.999989,-212.899995,251.600003,1.02,"ST (Steam Turbine)",ng,2516,2516-2,1,0,0,retain_native_P_Q_bounds_status_and_explicit_voltage_policy,canonical_fuel_type_and_RAW_bus_unit_ID,19,0,26
27,19,3,PERFORM2019:GEN:19:3,native_generation,K,1,1,27,0,19,384.54771,-12.677054,30.000001,386.999989,-212.899995,251.600003,1.02,"ST (Steam Turbine)",ng,2516,2516-3,1,0,0,retain_native_P_Q_bounds_status_and_explicit_voltage_policy,canonical_fuel_type_and_RAW_bus_unit_ID,19,0,27
28,19,4,PERFORM2019:GEN:19:4,native_generation,K,1,1,28,0,19,386.999989,-12.677054,40.000001,386.999989,-212.899995,251.600003,1.02,"ST (Steam Turbine)",ng,2516,2516-4,1,0,0,retain_native_P_Q_bounds_status_and_explicit_voltage_policy,canonical_fuel_type_and_RAW_bus_unit_ID,19,0,28
29,19,5,PERFORM2019:GEN:19:5,native_generation,K,1,1,29,0,19,386.999989,-12.677054,40.000001,386.999989,-212.899995,251.600003,1.02,"ST (Steam Turbine)",ng,2516,2516-ST1,1,0,0,retain_native_P_Q_bounds_status_and_explicit_voltage_policy,canonical_fuel_type_and_RAW_bus_unit_ID,19,0,29
31,21,1,PERFORM2019:GEN:21:1,native_generation,E,1,1,31,0,21,10.782421,7.2,0.2,11,-6.1,7.2,1.02,"HY (Hydro)",hydro,2551,2551-1,1,0,0,retain_native_P_Q_bounds_status_and_explicit_voltage_policy,canonical_fuel_type_and_RAW_bus_unit_ID,21,0,30
32,21,2,PERFORM2019:GEN:21:2,native_generation,E,1,1,32,0,21,11.762641,7.8,0.2,12,-6.6,7.8,1.02,"HY (Hydro)",hydro,2551,2551-2,1,0,0,retain_native_P_Q_bounds_status_and_explicit_voltage_policy,canonical_fuel_type_and_RAW_bus_unit_ID,21,0,31
33,21,3,PERFORM2019:GEN:21:3,native_generation,E,1,1,33,0,21,12.742861,8.5,0.2,13,-7.2,8.5,1.02,"HY (Hydro)",hydro,2551,2551-3,1,0,0,retain_native_P_Q_bounds_status_and_explicit_voltage_policy,canonical_fuel_type_and_RAW_bus_unit_ID,21,0,32
34,24,1,PERFORM2019:GEN:24:1,native_generation,C,1,1,34,0,24,8.821981,4.911201,3,9,-5,5.9,1.02,"HY (Hydro)",hydro,2545,2545-1,1,0,0,retain_native_P_Q_bounds_status_and_explicit_voltage_policy,canonical_fuel_type_and_RAW_bus_unit_ID,24,0,33
35,24,2,PERFORM2019:GEN:24:2,native_generation,C,1,1,35,0,24,8.821981,4.911201,3,9,-5,5.9,1.02,"HY (Hydro)",hydro,2545,2545-2,1,0,0,retain_native_P_Q_bounds_status_and_explicit_voltage_policy,canonical_fuel_type_and_RAW_bus_unit_ID,24,0,34
36,24,3,PERFORM2019:GEN:24:3,native_generation,C,1,1,36,0,24,8.821981,4.911201,3,9,-5,5.9,1.02,"HY (Hydro)",hydro,2545,2545-3,1,0,0,retain_native_P_Q_bounds_status_and_explicit_voltage_policy,canonical_fuel_type_and_RAW_bus_unit_ID,24,0,35
37,24,4,PERFORM2019:GEN:24:4,native_generation,C,1,1,37,0,24,8.821981,4.911201,3,9,-5,5.9,1.02,"HY (Hydro)",hydro,2545,2545-4,1,0,0,retain_native_P_Q_bounds_status_and_explicit_voltage_policy,canonical_fuel_type_and_RAW_bus_unit_ID,24,0,36
38,26,C1,PERFORM2019:GEN:26:C1,native_generation,J,1,1,38,0,26,594.999981,37.359586,320.000005,594.999981,-416.499996,446.25001,1.02,"CC (Combined Cycle Generic)",ng,55375,55375_CC1,1,0,0,retain_native_P_Q_bounds_status_and_explicit_voltage_policy,canonical_fuel_type_and_RAW_bus_unit_ID,26,0,37
39,26,C2,PERFORM2019:GEN:26:C2,native_generation,J,1,1,39,0,26,650,37.359586,320.000005,650,-455.000019,487.5,1.02,"CC (Combined Cycle Generic)",ng,57664,57664_CC1,1,0,0,retain_native_P_Q_bounds_status_and_explicit_voltage_policy,canonical_fuel_type_and_RAW_bus_unit_ID,26,0,38
40,27,C1,PERFORM2019:GEN:27:C1,native_generation,C,1,1,40,0,27,121.823132,44.847983,41.999999,122.599995,-85.820001,91.949999,1.02,"CC (Combined Cycle Generic)",ng,50978,50978_CC1,1,0,0,retain_native_P_Q_bounds_status_and_explicit_voltage_policy,canonical_fuel_type_and_RAW_bus_unit_ID,27,0,39
41,28,C1,PERFORM2019:GEN:28:C1,native_generation,E,0,0,41,0,28,0,0,34.999999,62.900001,-44.029999,47.174999,1.02,"CC (Combined Cycle Generic)",ng,10620,10620_CC1,1,0,0,retain_native_P_Q_bounds_status_and_explicit_voltage_policy,canonical_fuel_type_and_RAW_bus_unit_ID,28,0,40
42,29,1,PERFORM2019:GEN:29:1,native_generation,C,1,1,42,0,29,111.2903,-7.886115,31.999999,112,-61.6,72.799999,1.02,"ST (Steam Turbine)",ng,2527,2527-4,1,0,0,retain_native_P_Q_bounds_status_and_explicit_voltage_policy,canonical_fuel_type_and_RAW_bus_unit_ID,29,0,41
43,30,1,PERFORM2019:GEN:30:1,native_generation,C,1,1,43,0,30,4.07402,-1.636664,0,4.1,-2.3,2.7,1.02,"WT (Wind Turbine)",wind,57867,57867-2,1,0,0,retain_native_P_Q_bounds_status_and_explicit_voltage_policy,canonical_fuel_type_and_RAW_bus_unit_ID,30,0,42
44,30,2,PERFORM2019:GEN:30:2,native_generation,C,1,1,44,0,30,55.048954,-1.636664,0,55.400002,-30.500001,36.000001,1.02,"WT (Wind Turbine)",wind,57867,57867-1,1,0,0,retain_native_P_Q_bounds_status_and_explicit_voltage_policy,canonical_fuel_type_and_RAW_bus_unit_ID,30,0,43
45,31,1,PERFORM2019:GEN:31:1,native_generation,F,1,1,45,0,31,0.98022,-0.6,0.2,1,-0.6,0.7,1.02,"HY (Hydro)",hydro,54580,54580-C4,1,0,0,retain_native_P_Q_bounds_status_and_explicit_voltage_policy,canonical_fuel_type_and_RAW_bus_unit_ID,31,0,44
46,31,2,PERFORM2019:GEN:31:2,native_generation,F,1,1,46,0,31,0.98022,-0.6,0.2,1,-0.6,0.7,1.02,"HY (Hydro)",hydro,54580,54580-C5,1,0,0,retain_native_P_Q_bounds_status_and_explicit_voltage_policy,canonical_fuel_type_and_RAW_bus_unit_ID,31,0,45
47,31,3,PERFORM2019:GEN:31:3,native_generation,F,1,1,47,0,31,2.548572,-1.4,0.9,2.6,-1.4,1.7,1.02,"HY (Hydro)",hydro,54580,54580-C1,1,0,0,retain_native_P_Q_bounds_status_and_explicit_voltage_policy,canonical_fuel_type_and_RAW_bus_unit_ID,31,0,46
48,31,4,PERFORM2019:GEN:31:4,native_generation,F,1,1,48,0,31,2.548572,-1.4,0.9,2.6,-1.4,1.7,1.02,"HY (Hydro)",hydro,54580,54580-C2,1,0,0,retain_native_P_Q_bounds_status_and_explicit_voltage_policy,canonical_fuel_type_and_RAW_bus_unit_ID,31,0,47
49,31,5,PERFORM2019:GEN:31:5,native_generation,F,1,1,49,0,31,2.548572,-1.4,2.3,2.6,-1.4,1.7,1.02,"HY (Hydro)",hydro,54580,54580-C3,1,0,0,retain_native_P_Q_bounds_status_and_explicit_voltage_policy,canonical_fuel_type_and_RAW_bus_unit_ID,31,0,48
50,31,6,PERFORM2019:GEN:31:6,native_generation,F,1,1,50,0,31,24.113415,-3.042392,6,24.600001,-13.500001,16,1.02,"HY (Hydro)",hydro,54580,54580-P1,1,0,0,retain_native_P_Q_bounds_status_and_explicit_voltage_policy,canonical_fuel_type_and_RAW_bus_unit_ID,31,0,49
51,31,7,PERFORM2019:GEN:31:7,native_generation,F,1,1,51,0,31,24.113415,-3.042392,6,24.600001,-13.500001,16,1.02,"HY (Hydro)",hydro,54580,54580-P2,1,0,0,retain_native_P_Q_bounds_status_and_explicit_voltage_policy,canonical_fuel_type_and_RAW_bus_unit_ID,31,0,50
52,32,C1,PERFORM2019:GEN:32:C1,native_generation,F,1,1,52,0,32,147.000003,-32.940623,113,147.000003,-102.900004,110.249996,1.02,"CC (Combined Cycle Generic)",ng,50458,50458_G723,1,0,0,retain_native_P_Q_bounds_status_and_explicit_voltage_policy,canonical_fuel_type_and_RAW_bus_unit_ID,32,0,51
53,33,C1,PERFORM2019:GEN:33:C1,native_generation,A,1,1,53,0,33,56.241345,-9.887437,44,56.599998,-39.62,42.449999,1.02,"CC (Combined Cycle Generic)",ng,50449,50449_G722,1,0,0,retain_native_P_Q_bounds_status_and_explicit_voltage_policy,canonical_fuel_type_and_RAW_bus_unit_ID,33,0,52
54,34,C1,PERFORM2019:GEN:34:C1,native_generation,C,1,1,54,0,34,57.036275,14.665274,44.499999,57.4,-40.180001,43.05,1.02,"CC (Combined Cycle Generic)",ng,50450,50450_CC1,1,0,0,retain_native_P_Q_bounds_status_and_explicit_voltage_policy,canonical_fuel_type_and_RAW_bus_unit_ID,34,0,53
55,35,1,PERFORM2019:GEN:35:1,native_generation,D,1,1,55,0,35,3.136704,2.1,0,3.2,-1.8,2.1,1.02,"HY (Hydro)",hydro,2532,2532-1,1,0,0,retain_native_P_Q_bounds_status_and_explicit_voltage_policy,canonical_fuel_type_and_RAW_bus_unit_ID,35,0,54
56,35,2,PERFORM2019:GEN:35:2,native_generation,D,1,1,56,0,35,3.136704,2.1,0,3.2,-1.8,2.1,1.02,"HY (Hydro)",hydro,2532,2532-2,1,0,0,retain_native_P_Q_bounds_status_and_explicit_voltage_policy,canonical_fuel_type_and_RAW_bus_unit_ID,35,0,55
57,35,3,PERFORM2019:GEN:35:3,native_generation,D,1,1,57,0,35,3.92088,2.6,0,4,-2.2,2.6,1.02,"HY (Hydro)",hydro,2530,2530-1,1,0,0,retain_native_P_Q_bounds_status_and_explicit_voltage_policy,canonical_fuel_type_and_RAW_bus_unit_ID,35,0,56
58,35,4,PERFORM2019:GEN:35:4,native_generation,D,1,1,58,0,35,3.92088,2.6,0,4,-2.2,2.6,1.02,"HY (Hydro)",hydro,2530,2530-2,1,0,0,retain_native_P_Q_bounds_status_and_explicit_voltage_policy,canonical_fuel_type_and_RAW_bus_unit_ID,35,0,57
59,35,5,PERFORM2019:GEN:35:5,native_generation,D,1,1,59,0,35,5.88132,3.9,0,6,-3.3,3.9,1.02,"HY (Hydro)",hydro,2532,2532-3,1,0,0,retain_native_P_Q_bounds_status_and_explicit_voltage_policy,canonical_fuel_type_and_RAW_bus_unit_ID,35,0,58
60,35,6,PERFORM2019:GEN:35:6,native_generation,D,1,1,60,0,35,6.861541,4.6,0,7,-3.9,4.6,1.02,"HY (Hydro)",hydro,2530,2530-3,1,0,0,retain_native_P_Q_bounds_status_and_explicit_voltage_policy,canonical_fuel_type_and_RAW_bus_unit_ID,35,0,59
61,37,C1,PERFORM2019:GEN:37:C1,native_generation,A,1,1,61,0,37,190.435088,23.531631,103.999996,221.300006,-154.910004,165.974998,1.02,"CC (Combined Cycle Generic)",ng,54041,54041_LEA1,1,0,0,retain_native_P_Q_bounds_status_and_explicit_voltage_policy,canonical_fuel_type_and_RAW_bus_unit_ID,37,0,60
62,38,1,PERFORM2019:GEN:38:1,native_generation,A,1,1,62,0,38,99.863166,-12.516913,0,100.5,-55.299997,70.4,1.02,"WT (Wind Turbine)",wind,56620,56620-1,1,0,0,retain_native_P_Q_bounds_status_and_explicit_voltage_policy,canonical_fuel_type_and_RAW_bus_unit_ID,38,0,61
63,39,1,PERFORM2019:GEN:39:1,native_generation,A,1,1,63,0,39,125.201583,-11.060338,0,125.999999,-69.300002,88.200003,1.02,"WT (Wind Turbine)",wind,56902,56902-1,1,0,0,retain_native_P_Q_bounds_status_and_explicit_voltage_policy,canonical_fuel_type_and_RAW_bus_unit_ID,39,0,62
64,41,C1,PERFORM2019:GEN:41:C1,native_generation,A,1,1,64,0,41,65.28368,13.30934,40.599999,65.700001,-45.989999,49.274999,1.02,"CC (Combined Cycle Generic)",ng,54131,54131_CC1,1,0,0,retain_native_P_Q_bounds_status_and_explicit_voltage_policy,canonical_fuel_type_and_RAW_bus_unit_ID,41,0,63
65,52,1,PERFORM2019:GEN:52:1,native_generation,C,1,1,65,0,52,16.097346,-0.083381,0,16.2,-8.9,11.3,1.02,"WT (Wind Turbine)",wind,58768,58768-1,1,0,0,retain_native_P_Q_bounds_status_and_explicit_voltage_policy,canonical_fuel_type_and_RAW_bus_unit_ID,52,0,64
66,53,1,PERFORM2019:GEN:53:1,native_generation,C,1,1,66,0,53,37.262374,-8.453422,0,37.5,-20.6,26.300001,1.02,"WT (Wind Turbine)",wind,56633,56633-1,1,0,0,retain_native_P_Q_bounds_status_and_explicit_voltage_policy,canonical_fuel_type_and_RAW_bus_unit_ID,53,0,65
67,60,1,PERFORM2019:GEN:60:1,native_generation,E,1,1,67,0,60,0.784176,0.6,0.4,0.8,-0.4,0.6,1.02,"HY (Hydro)",hydro,2631,2631-RIO2,1,0,0,retain_native_P_Q_bounds_status_and_explicit_voltage_policy,canonical_fuel_type_and_RAW_bus_unit_ID,60,0,66
68,60,2,PERFORM2019:GEN:60:2,native_generation,E,1,1,68,0,60,9.802201,3.362943,4,10,-5.5,7,1.02,"HY (Hydro)",hydro,2631,2631-RIO,1,0,0,retain_native_P_Q_bounds_status_and_explicit_voltage_policy,canonical_fuel_type_and_RAW_bus_unit_ID,60,0,67
69,63,C1,PERFORM2019:GEN:63:C1,native_generation,F,0,0,69,0,63,0,0,60.000002,88.199997,-61.739999,66.149998,1.02,"CC (Combined Cycle Generic)",ng,54034,54034_G701,1,0,0,retain_native_P_Q_bounds_status_and_explicit_voltage_policy,canonical_fuel_type_and_RAW_bus_unit_ID,63,0,68
70,63,C2,PERFORM2019:GEN:63:C2,native_generation,F,1,1,70,0,63,653.643417,11.450057,315.00001,653.700018,-457.590008,490.275002,1.02,"CC (Combined Cycle Generic)",ng,56259,56259_CC1,1,0,0,retain_native_P_Q_bounds_status_and_explicit_voltage_policy,canonical_fuel_type_and_RAW_bus_unit_ID,63,0,69
71,69,1,PERFORM2019:GEN:69:1,native_generation,A,0,0,71,0,69,0,0,5,24.5,-13.500001,17.200001,1.02,"ST (Steam Turbine)",ng,2682,2682-5,1,0,0,retain_native_P_Q_bounds_status_and_explicit_voltage_policy,canonical_fuel_type_and_RAW_bus_unit_ID,69,0,70
72,69,2,PERFORM2019:GEN:69:2,native_generation,A,1,1,72,0,69,24.344754,-1.972762,5,24.5,-13.500001,17.200001,1.02,"ST (Steam Turbine)",ng,2682,2682-6,1,0,0,retain_native_P_Q_bounds_status_and_explicit_voltage_policy,canonical_fuel_type_and_RAW_bus_unit_ID,69,0,71
73,69,3,PERFORM2019:GEN:69:3,native_generation,A,1,1,73,0,69,47.000274,-1.972762,9,47.299999,-25.999999,33.1,1.02,"GT (Gas Turbine)",ng,2682,2682-7,1,0,0,retain_native_P_Q_bounds_status_and_explicit_voltage_policy,canonical_fuel_type_and_RAW_bus_unit_ID,69,0,72
75,79,1,PERFORM2019:GEN:79:1,native_generation,J,0,0,75,0,79,0,0,0.3,1,-0.6,0.7,1.02,"IC (Internal Combustion)",dfo,61488,61488-HCC1,1,0,0,retain_native_P_Q_bounds_status_and_explicit_voltage_policy,canonical_fuel_type_and_RAW_bus_unit_ID,79,0,73
76,79,2,PERFORM2019:GEN:79:2,native_generation,J,0,0,82,0,79,0,0,0.4,1.3,-0.7,0.9,1.02,"IC (Internal Combustion)",dfo,61488,61488-SKB1,1,0,0,retain_native_P_Q_bounds_status_and_explicit_voltage_policy,canonical_fuel_type_and_RAW_bus_unit_ID,79,0,74
77,79,3,PERFORM2019:GEN:79:3,native_generation,J,0,0,83,0,79,0,0,0.4,1.4,-0.8,1,1.02,"IC (Internal Combustion)",dfo,61488,61488-SMB1,1,0,0,retain_native_P_Q_bounds_status_and_explicit_voltage_policy,canonical_fuel_type_and_RAW_bus_unit_ID,79,0,75
78,79,4,PERFORM2019:GEN:79:4,native_generation,J,0,0,84,0,79,0,0,0.4,1.4,-0.8,1,1.02,"IC (Internal Combustion)",dfo,61488,61488-SMB2,1,0,0,retain_native_P_Q_bounds_status_and_explicit_voltage_policy,canonical_fuel_type_and_RAW_bus_unit_ID,79,0,76
79,79,5,PERFORM2019:GEN:79:5,native_generation,J,0,0,85,0,79,0,0,0.1,2.5,-1.4,1.8,1.02,"IC (Internal Combustion)",dfo,61488,61488-ENB3,1,0,0,retain_native_P_Q_bounds_status_and_explicit_voltage_policy,canonical_fuel_type_and_RAW_bus_unit_ID,79,0,77
80,79,6,PERFORM2019:GEN:79:6,native_generation,J,0,0,86,0,79,0,0,0.8,2.7,-1.5,1.9,1.02,"IC (Internal Combustion)",dfo,61488,61488-ENB1,1,0,0,retain_native_P_Q_bounds_status_and_explicit_voltage_policy,canonical_fuel_type_and_RAW_bus_unit_ID,79,0,78
81,79,7,PERFORM2019:GEN:79:7,native_generation,J,0,0,87,0,79,0,0,0.8,2.7,-1.5,1.9,1.02,"IC (Internal Combustion)",dfo,61488,61488-ENB2,1,0,0,retain_native_P_Q_bounds_status_and_explicit_voltage_policy,canonical_fuel_type_and_RAW_bus_unit_ID,79,0,79
82,79,8,PERFORM2019:GEN:79:8,native_generation,J,0,0,88,0,79,0,0,0.1,3,-1.7,2.1,1.02,"IC (Internal Combustion)",dfo,61488,61488-SCI1,1,0,0,retain_native_P_Q_bounds_status_and_explicit_voltage_policy,canonical_fuel_type_and_RAW_bus_unit_ID,79,0,80
83,79,9,PERFORM2019:GEN:79:9,native_generation,J,0,0,89,0,79,0,0,0.1,3,-1.7,2.1,1.02,"IC (Internal Combustion)",dfo,61488,61488-SCI2,1,0,0,retain_native_P_Q_bounds_status_and_explicit_voltage_policy,canonical_fuel_type_and_RAW_bus_unit_ID,79,0,81
84,79,10,PERFORM2019:GEN:79:10,native_generation,J,1,1,76,0,79,7.452475,-4.1,4,7.5,-4.1,5.3,1.02,"GT (Gas Turbine)",dfo,61488,61488-GT,1,0,0,retain_native_P_Q_bounds_status_and_explicit_voltage_policy,canonical_fuel_type_and_RAW_bus_unit_ID,79,0,82
85,79,11,PERFORM2019:GEN:79:11,native_generation,J,1,1,77,0,79,46.702179,-8.824223,1,47,-25.9,32.9,1.02,"GT (Gas Turbine)",dfo,7915,7915-N01,1,0,0,retain_native_P_Q_bounds_status_and_explicit_voltage_policy,canonical_fuel_type_and_RAW_bus_unit_ID,79,0,83
86,79,12,PERFORM2019:GEN:79:12,native_generation,J,0,0,78,0,79,0,0,44.999999,156.200004,-85.900003,109.300005,1.02,"ST (Steam Turbine)",ng,2493,2493-6,1,0,0,retain_native_P_Q_bounds_status_and_explicit_voltage_policy,canonical_fuel_type_and_RAW_bus_unit_ID,79,0,84
87,79,13,PERFORM2019:GEN:79:13,native_generation,J,1,1,79,0,79,178.859413,-8.824223,110.000002,179.999995,-99.000001,125.999999,1.02,"GT (Gas Turbine)",ng,2493,2493-1,1,0,0,retain_native_P_Q_bounds_status_and_explicit_voltage_policy,canonical_fuel_type_and_RAW_bus_unit_ID,79,0,85
88,79,14,PERFORM2019:GEN:79:14,native_generation,J,1,1,80,0,79,178.859413,-8.824223,110.000002,179.999995,-99.000001,125.999999,1.02,"GT (Gas Turbine)",ng,2493,2493-2,1,0,0,retain_native_P_Q_bounds_status_and_explicit_voltage_policy,canonical_fuel_type_and_RAW_bus_unit_ID,79,0,86
89,79,15,PERFORM2019:GEN:79:15,native_generation,J,0,0,81,0,79,0,0,64.999998,200,-110.000002,139.999998,1.02,"ST (Steam Turbine)",ng,2493,2493-7,1,0,0,retain_native_P_Q_bounds_status_and_explicit_voltage_policy,canonical_fuel_type_and_RAW_bus_unit_ID,79,0,87
90,80,1,PERFORM2019:GEN:80:1,native_generation,E,1,1,90,0,80,55.148321,-6.652479,15.000001,55.500001,-30.500001,38.9,1.02,"ST (Steam Turbine)",wood,10464,10464-GEN1,1,0,0,retain_native_P_Q_bounds_status_and_explicit_voltage_policy,canonical_fuel_type_and_RAW_bus_unit_ID,80,0,88
92,82,1,PERFORM2019:GEN:82:1,native_generation,E,1,1,92,0,82,34.281385,-8.052556,0,34.5,-19,24.2,1.02,"WT (Wind Turbine)",wind,56594,56594-MU1,1,0,0,retain_native_P_Q_bounds_status_and_explicit_voltage_policy,canonical_fuel_type_and_RAW_bus_unit_ID,82,0,89
93,83,1,PERFORM2019:GEN:83:1,native_generation,E,1,1,93,0,83,7.841761,-1.994335,4,8,-4.4,5.6,1.02,"HY (Hydro)",hydro,2610,2610-1,1,0,0,retain_native_P_Q_bounds_status_and_explicit_voltage_policy,canonical_fuel_type_and_RAW_bus_unit_ID,83,0,90
94,83,2,PERFORM2019:GEN:83:2,native_generation,E,1,1,94,0,83,7.841761,-1.994335,4,8,-4.4,5.6,1.02,"HY (Hydro)",hydro,2610,2610-2,1,0,0,retain_native_P_Q_bounds_status_and_explicit_voltage_policy,canonical_fuel_type_and_RAW_bus_unit_ID,83,0,91
95,84,1,PERFORM2019:GEN:84:1,native_generation,F,1,1,95,0,84,10.782421,-0.991179,1,11,-6.1,7.7,1.02,"HY (Hydro)",hydro,6527,6527-1,1,0,0,retain_native_P_Q_bounds_status_and_explicit_voltage_policy,canonical_fuel_type_and_RAW_bus_unit_ID,84,0,92
96,84,2,PERFORM2019:GEN:84:2,native_generation,F,1,1,96,0,84,10.782421,-0.991179,1,11,-6.1,7.7,1.02,"HY (Hydro)",hydro,6527,6527-2,1,0,0,retain_native_P_Q_bounds_status_and_explicit_voltage_policy,canonical_fuel_type_and_RAW_bus_unit_ID,84,0,93
97,95,C1,PERFORM2019:GEN:95:C1,native_generation,B,1,1,97,0,95,66.575444,-0.00175,37,67.000002,-46.900001,50.25,1.02,"CC (Combined Cycle Generic)",ng,7784,7784_CC01,1,0,0,retain_native_P_Q_bounds_status_and_explicit_voltage_policy,canonical_fuel_type_and_RAW_bus_unit_ID,95,0,94
98,116,1,PERFORM2019:GEN:116:1,native_generation,C,1,1,98,0,116,47.397739,-18.961684,41.999999,47.7,-26.199999,33.399999,1.02,"GT (Gas Turbine)",dfo,55600,55600-1,1,0,0,retain_native_P_Q_bounds_status_and_explicit_voltage_policy,canonical_fuel_type_and_RAW_bus_unit_ID,116,0,95
99,125,1,PERFORM2019:GEN:125:1,native_generation,E,0,0,99,0,125,0,0,0.1,2,-1.1,1.4,1.02,"IC (Internal Combustion)",dfo,54592,54592-IC,1,0,0,retain_native_P_Q_bounds_status_and_explicit_voltage_policy,canonical_fuel_type_and_RAW_bus_unit_ID,125,0,96
100,125,C1,PERFORM2019:GEN:125:C1,native_generation,E,0,0,100,0,125,0,0,75.999999,102.100003,-71.469998,76.574999,1.02,"CC (Combined Cycle Generic)",ng,54592,54592_CC1,1,0,0,retain_native_P_Q_bounds_status_and_explicit_voltage_policy,canonical_fuel_type_and_RAW_bus_unit_ID,125,0,97
101,127,C1,PERFORM2019:GEN:127:C1,native_generation,F,1,1,101,0,127,708.878994,-63.215643,666.400003,893.099976,-625.169992,669.824982,1.02,"CC (Combined Cycle Generic)",ng,2539,2539_CC1,1,0,0,retain_native_P_Q_bounds_status_and_explicit_voltage_policy,canonical_fuel_type_and_RAW_bus_unit_ID,127,0,98
102,128,1,PERFORM2019:GEN:128:1,native_generation,B,1,1,102,0,128,610.109282,-34.765571,461.000013,613.999987,-337.700009,429.799986,1.02,"ST (Steam Turbine)",nuclear,6122,6122-1,1,0,0,retain_native_P_Q_bounds_status_and_explicit_voltage_policy,canonical_fuel_type_and_RAW_bus_unit_ID,128,0,99
103,150,1,PERFORM2019:GEN:150:1,native_generation,C,0,0,104,0,150,0,0,0.3,1,-0.6,0.7,1.02,"IC (Internal Combustion)",dfo,50368,50368-EDG1,1,0,0,retain_native_P_Q_bounds_status_and_explicit_voltage_policy,canonical_fuel_type_and_RAW_bus_unit_ID,150,0,100
104,150,2,PERFORM2019:GEN:150:2,native_generation,C,0,0,105,0,150,0,0,0.3,1,-0.6,0.7,1.02,"IC (Internal Combustion)",dfo,50368,50368-EDG2,1,0,0,retain_native_P_Q_bounds_status_and_explicit_voltage_policy,canonical_fuel_type_and_RAW_bus_unit_ID,150,0,101
105,150,C1,PERFORM2019:GEN:150:C1,native_generation,C,0,0,106,0,150,0,0,8.2,16.8,-11.76,12.6,1.02,"CC (Combined Cycle Generic)",ng,50368,50368_CT1,1,0,0,retain_native_P_Q_bounds_status_and_explicit_voltage_policy,canonical_fuel_type_and_RAW_bus_unit_ID,150,0,102
106,150,C2,PERFORM2019:GEN:150:C2,native_generation,C,0,0,107,0,150,0,0,8.4,20.7,-14.489999,15.525,1.02,"CC (Combined Cycle Generic)",ng,50368,50368_CT2,1,0,0,retain_native_P_Q_bounds_status_and_explicit_voltage_policy,canonical_fuel_type_and_RAW_bus_unit_ID,150,0,103
107,161,1,PERFORM2019:GEN:161:1,native_generation,A,1,1,108,0,161,19.873267,3.915991,0,20,-11,14,1.02,"WT (Wind Turbine)",wind,56575,56575-1,1,0,0,retain_native_P_Q_bounds_status_and_explicit_voltage_policy,canonical_fuel_type_and_RAW_bus_unit_ID,161,0,104
108,178,C1,PERFORM2019:GEN:178:C1,native_generation,C,0,0,109,0,178,0,0,44.999999,102.699995,-71.890002,77.025002,1.02,"CC (Combined Cycle Generic)",ng,10621,10621_CC01,1,0,0,retain_native_P_Q_bounds_status_and_explicit_voltage_policy,canonical_fuel_type_and_RAW_bus_unit_ID,178,0,105
109,193,C1,PERFORM2019:GEN:193:C1,native_generation,D,0,0,110,0,193,0,0,89.999998,285.599995,-199.919999,214.199996,1.02,"CC (Combined Cycle Generic)",ng,54574,54574_CA,1,0,0,retain_native_P_Q_bounds_status_and_explicit_voltage_policy,canonical_fuel_type_and_RAW_bus_unit_ID,193,0,106
110,194,1,PERFORM2019:GEN:194:1,native_energy_storage,F,1,1,111,0,194,19.873267,14,0,20,-11,14,1.02,"BA (Energy Storage, Battery)",other,62147,62147-KNY1,1,0,0,retain_native_P_Q_bounds_status_and_explicit_voltage_policy,canonical_fuel_type_and_RAW_bus_unit_ID,194,0,107
111,199,1,PERFORM2019:GEN:199:1,native_generation,B,0,0,112,0,199,0,0,1,7.2,-4,5,1.02,"ST (Steam Turbine)",dfo,58157,58157-LP,1,0,0,retain_native_P_Q_bounds_status_and_explicit_voltage_policy,canonical_fuel_type_and_RAW_bus_unit_ID,199,0,108
112,199,2,PERFORM2019:GEN:199:2,native_generation,B,0,0,113,0,199,0,0,2,18.2,-10,12.7,1.02,"ST (Steam Turbine)",dfo,58157,58157-HP,1,0,0,retain_native_P_Q_bounds_status_and_explicit_voltage_policy,canonical_fuel_type_and_RAW_bus_unit_ID,199,0,109
113,212,1,PERFORM2019:GEN:212:1,native_generation,B,0,0,114,0,212,0,0,0.6,0.8,-0.4,0.6,1.02,"IC (Internal Combustion)",other,56250,56250-GEN1,1,0,0,retain_native_P_Q_bounds_status_and_explicit_voltage_policy,canonical_fuel_type_and_RAW_bus_unit_ID,212,0,110
114,212,2,PERFORM2019:GEN:212:2,native_generation,B,0,0,117,0,212,0,0,0.6,0.8,-0.4,0.6,1.02,"IC (Internal Combustion)",other,56250,56250-GEN2,1,0,0,retain_native_P_Q_bounds_status_and_explicit_voltage_policy,canonical_fuel_type_and_RAW_bus_unit_ID,212,0,111
115,212,3,PERFORM2019:GEN:212:3,native_generation,B,0,0,118,0,212,0,0,0.6,0.8,-0.4,0.6,1.02,"IC (Internal Combustion)",other,56250,56250-GEN3,1,0,0,retain_native_P_Q_bounds_status_and_explicit_voltage_policy,canonical_fuel_type_and_RAW_bus_unit_ID,212,0,112
116,212,4,PERFORM2019:GEN:212:4,native_generation,B,0,0,119,0,212,0,0,0.6,0.8,-0.4,0.6,1.02,"IC (Internal Combustion)",other,56250,56250-GEN4,1,0,0,retain_native_P_Q_bounds_status_and_explicit_voltage_policy,canonical_fuel_type_and_RAW_bus_unit_ID,212,0,113
117,212,5,PERFORM2019:GEN:212:5,native_generation,B,0,0,120,0,212,0,0,0.6,0.8,-0.4,0.6,1.02,"IC (Internal Combustion)",other,56250,56250-GEN5,1,0,0,retain_native_P_Q_bounds_status_and_explicit_voltage_policy,canonical_fuel_type_and_RAW_bus_unit_ID,212,0,114
118,212,6,PERFORM2019:GEN:212:6,native_generation,B,0,0,121,0,212,0,0,0.6,0.8,-0.4,0.6,1.02,"IC (Internal Combustion)",other,56250,56250-GEN6,1,0,0,retain_native_P_Q_bounds_status_and_explicit_voltage_policy,canonical_fuel_type_and_RAW_bus_unit_ID,212,0,115
119,212,7,PERFORM2019:GEN:212:7,native_generation,B,0,0,122,0,212,0,0,0.6,0.8,-0.4,0.6,1.02,"IC (Internal Combustion)",other,56250,56250-GEN7,1,0,0,retain_native_P_Q_bounds_status_and_explicit_voltage_policy,canonical_fuel_type_and_RAW_bus_unit_ID,212,0,116
120,212,8,PERFORM2019:GEN:212:8,native_generation,B,0,0,123,0,212,0,0,0.6,0.8,-0.4,0.6,1.02,"IC (Internal Combustion)",other,56250,56250-GEN8,1,0,0,retain_native_P_Q_bounds_status_and_explicit_voltage_policy,canonical_fuel_type_and_RAW_bus_unit_ID,212,0,117
121,212,9,PERFORM2019:GEN:212:9,native_generation,B,0,0,124,0,212,0,0,0.8,1.6,-0.9,1.1,1.02,"IC (Internal Combustion)",other,56250,56250-GEN10,1,0,0,retain_native_P_Q_bounds_status_and_explicit_voltage_policy,canonical_fuel_type_and_RAW_bus_unit_ID,212,0,118
122,212,10,PERFORM2019:GEN:212:10,native_generation,B,0,0,115,0,212,0,0,0.8,1.6,-0.9,1.1,1.02,"IC (Internal Combustion)",other,56250,56250-GEN11,1,0,0,retain_native_P_Q_bounds_status_and_explicit_voltage_policy,canonical_fuel_type_and_RAW_bus_unit_ID,212,0,119
123,212,11,PERFORM2019:GEN:212:11,native_generation,B,0,0,116,0,212,0,0,0.8,1.6,-0.9,1.1,1.02,"IC (Internal Combustion)",other,56250,56250-GEN9,1,0,0,retain_native_P_Q_bounds_status_and_explicit_voltage_policy,canonical_fuel_type_and_RAW_bus_unit_ID,212,0,120
124,234,1,PERFORM2019:GEN:234:1,native_generation,A,0,0,125,0,234,0,0,0.5,1.1,-0.6,0.8,1.02,"IC (Internal Combustion)",dfo,54593,54593-GEN3,1,0,0,retain_native_P_Q_bounds_status_and_explicit_voltage_policy,canonical_fuel_type_and_RAW_bus_unit_ID,234,0,121
125,234,C1,PERFORM2019:GEN:234:C1,native_generation,A,0,0,126,0,234,0,0,48.800001,66.2,-46.340001,49.649999,1.02,"CC (Combined Cycle Generic)",ng,54593,54593_CC01,1,0,0,retain_native_P_Q_bounds_status_and_explicit_voltage_policy,canonical_fuel_type_and_RAW_bus_unit_ID,234,0,122
126,250,1,PERFORM2019:GEN:250:1,native_generation,B,1,1,128,0,250,0.392088,0.3,0.1,0.4,-0.2,0.3,1.02,"HY (Hydro)",hydro,10025,10025-KPR1,1,0,0,retain_native_P_Q_bounds_status_and_explicit_voltage_policy,canonical_fuel_type_and_RAW_bus_unit_ID,250,0,123
127,250,2,PERFORM2019:GEN:250:2,native_generation,B,0,0,131,0,250,0,0,0.4,3,-1.7,2.1,1.02,"ST (Steam Turbine)",coal,10025,10025-75TG,1,0,0,retain_native_P_Q_bounds_status_and_explicit_voltage_policy,canonical_fuel_type_and_RAW_bus_unit_ID,250,0,124
128,250,3,PERFORM2019:GEN:250:3,native_generation,B,0,0,132,0,250,0,0,4,12.5,-6.9,8.8,1.02,"ST (Steam Turbine)",coal,10025,10025-22TG,1,0,0,retain_native_P_Q_bounds_status_and_explicit_voltage_policy,canonical_fuel_type_and_RAW_bus_unit_ID,250,0,125
129,250,4,PERFORM2019:GEN:250:4,native_generation,B,1,1,133,0,250,12.546818,9,0,12.800001,-7,9,1.02,"HY (Hydro)",hydro,2641,2641-2,1,0,0,retain_native_P_Q_bounds_status_and_explicit_voltage_policy,canonical_fuel_type_and_RAW_bus_unit_ID,250,0,126
130,250,5,PERFORM2019:GEN:250:5,native_generation,B,1,1,134,0,250,12.546818,9,0,12.800001,-7,9,1.02,"HY (Hydro)",hydro,2641,2641-HY1,1,0,0,retain_native_P_Q_bounds_status_and_explicit_voltage_policy,canonical_fuel_type_and_RAW_bus_unit_ID,250,0,127
131,250,6,PERFORM2019:GEN:250:6,native_generation,B,0,0,135,0,250,0,0,4,15.000001,-8.3,10.5,1.02,"ST (Steam Turbine)",coal,10025,10025-17TG,1,0,0,retain_native_P_Q_bounds_status_and_explicit_voltage_policy,canonical_fuel_type_and_RAW_bus_unit_ID,250,0,128
132,250,7,PERFORM2019:GEN:250:7,native_generation,B,1,1,136,0,250,17.643961,12.6,0,18.000001,-9.9,12.6,1.02,"HY (Hydro)",hydro,2641,2641-HY3,1,0,0,retain_native_P_Q_bounds_status_and_explicit_voltage_policy,canonical_fuel_type_and_RAW_bus_unit_ID,250,0,129
133,250,8,PERFORM2019:GEN:250:8,native_generation,B,0,0,137,0,250,0,0,5,25.600001,-14.1,17.900001,1.02,"ST (Steam Turbine)",coal,10025,10025-41TG,1,0,0,retain_native_P_Q_bounds_status_and_explicit_voltage_policy,canonical_fuel_type_and_RAW_bus_unit_ID,250,0,130
134,250,9,PERFORM2019:GEN:250:9,native_generation,B,0,0,138,0,250,0,0,5,25.600001,-14.1,17.900001,1.02,"ST (Steam Turbine)",coal,10025,10025-42TG,1,0,0,retain_native_P_Q_bounds_status_and_explicit_voltage_policy,canonical_fuel_type_and_RAW_bus_unit_ID,250,0,131
135,250,10,PERFORM2019:GEN:250:10,native_generation,B,0,0,129,0,250,0,0,5,25.600001,-14.1,17.900001,1.02,"ST (Steam Turbine)",coal,10025,10025-43TG,1,0,0,retain_native_P_Q_bounds_status_and_explicit_voltage_policy,canonical_fuel_type_and_RAW_bus_unit_ID,250,0,132
136,250,11,PERFORM2019:GEN:250:11,native_generation,B,0,0,130,0,250,0,0,5,25.600001,-14.1,17.900001,1.02,"ST (Steam Turbine)",coal,10025,10025-44TG,1,0,0,retain_native_P_Q_bounds_status_and_explicit_voltage_policy,canonical_fuel_type_and_RAW_bus_unit_ID,250,0,133
137,284,1,PERFORM2019:GEN:284:1,native_generation,A,1,1,139,0,284,24.841583,12.00477,3,25,-13.8,17.5,1.02,"ST (Steam Turbine)",other,50472,50472-GEN1,1,0,0,retain_native_P_Q_bounds_status_and_explicit_voltage_policy,canonical_fuel_type_and_RAW_bus_unit_ID,284,0,134
138,284,2,PERFORM2019:GEN:284:2,native_generation,A,1,1,140,0,284,24.841583,12.00477,3,25,-13.8,17.5,1.02,"ST (Steam Turbine)",other,50472,50472-GEN2,1,0,0,retain_native_P_Q_bounds_status_and_explicit_voltage_policy,canonical_fuel_type_and_RAW_bus_unit_ID,284,0,135
139,317,C1,PERFORM2019:GEN:317:C1,native_generation,A,1,1,141,0,317,59.520429,-0.357184,40.000001,59.899998,-41.929999,44.925001,1.02,"CC (Combined Cycle Generic)",ng,50451,50451_CC1,1,0,0,retain_native_P_Q_bounds_status_and_explicit_voltage_policy,canonical_fuel_type_and_RAW_bus_unit_ID,317,0,136
140,339,1,PERFORM2019:GEN:339:1,native_generation,C,1,1,142,0,339,39.249703,21.100989,3.5,39.500001,-21.699999,27.700001,1.02,"ST (Steam Turbine)",other,50662,50662-GEN1,1,0,0,retain_native_P_Q_bounds_status_and_explicit_voltage_policy,canonical_fuel_type_and_RAW_bus_unit_ID,339,0,137
141,357,1,PERFORM2019:GEN:357:1,native_generation,C,1,1,143,0,357,877.702904,-37.738255,661.999989,883.300018,-485.79998,618.300009,1.02,"ST (Steam Turbine)",nuclear,6110,6110-1,1,0,0,retain_native_P_Q_bounds_status_and_explicit_voltage_policy,canonical_fuel_type_and_RAW_bus_unit_ID,357,0,138
142,358,C3,PERFORM2019:GEN:358:C3,native_generation,C,1,1,144,0,358,542.534351,-29.686269,225,542.89999,-380.029988,407.175016,1.02,"CC (Combined Cycle Generic)",ng,54547,54547_BLK1,1,0,0,retain_native_P_Q_bounds_status_and_explicit_voltage_policy,canonical_fuel_type_and_RAW_bus_unit_ID,358,0,139
143,358,C4,PERFORM2019:GEN:358:C4,native_generation,C,1,1,145,0,358,543.200016,-29.686269,225,543.200016,-380.240011,407.399988,1.02,"CC (Combined Cycle Generic)",ng,54547,54547_BLK2,1,0,0,retain_native_P_Q_bounds_status_and_explicit_voltage_policy,canonical_fuel_type_and_RAW_bus_unit_ID,358,0,140
144,368,1,PERFORM2019:GEN:368:1,native_generation,E,1,1,146,0,368,29.809901,6.418672,0.1,30.000001,-16.500001,20.999999,1.02,"WT (Wind Turbine)",wind,55790,55790-1,1,0,0,retain_native_P_Q_bounds_status_and_explicit_voltage_policy,canonical_fuel_type_and_RAW_bus_unit_ID,368,0,141
145,378,1,PERFORM2019:GEN:378:1,native_generation,E,1,1,147,0,378,3.92088,1.87641,2.8,4,-2.2,2.8,1.02,"HY (Hydro)",hydro,2552,2552-1,1,0,0,retain_native_P_Q_bounds_status_and_explicit_voltage_policy,canonical_fuel_type_and_RAW_bus_unit_ID,378,0,142
146,378,2,PERFORM2019:GEN:378:2,native_generation,E,1,1,148,0,378,3.92088,1.87641,2.8,4,-2.2,2.8,1.02,"HY (Hydro)",hydro,2552,2552-2,1,0,0,retain_native_P_Q_bounds_status_and_explicit_voltage_policy,canonical_fuel_type_and_RAW_bus_unit_ID,378,0,143
147,378,3,PERFORM2019:GEN:378:3,native_generation,E,1,1,149,0,378,3.92088,1.87641,2.8,4,-2.2,2.8,1.02,"HY (Hydro)",hydro,2552,2552-3,1,0,0,retain_native_P_Q_bounds_status_and_explicit_voltage_policy,canonical_fuel_type_and_RAW_bus_unit_ID,378,0,144
148,381,1,PERFORM2019:GEN:381:1,native_generation,E,0,0,150,0,381,0,0,0.2,1.1,-0.6,0.8,1.02,"IC (Internal Combustion)",dfo,50744,50744-GEN3,1,0,0,retain_native_P_Q_bounds_status_and_explicit_voltage_policy,canonical_fuel_type_and_RAW_bus_unit_ID,381,0,145
149,381,C1,PERFORM2019:GEN:381:C1,native_generation,E,1,1,151,0,381,63.793194,1.546659,47,64.200002,-44.940001,48.15,1.02,"CC (Combined Cycle Generic)",ng,50744,50744_CC1,1,0,0,retain_native_P_Q_bounds_status_and_explicit_voltage_policy,canonical_fuel_type_and_RAW_bus_unit_ID,381,0,146
150,395,1,PERFORM2019:GEN:395:1,native_generation,E,1,1,152,0,395,32.790887,-17.395757,0.3,33.000001,-18.2,23.100001,1.02,"WT (Wind Turbine)",wind,56290,56290-2,1,0,0,retain_native_P_Q_bounds_status_and_explicit_voltage_policy,canonical_fuel_type_and_RAW_bus_unit_ID,395,0,147
151,395,2,PERFORM2019:GEN:395:2,native_generation,E,1,1,153,0,395,60.613459,-17.395757,0.5,61.000001,-33.6,42.699999,1.02,"WT (Wind Turbine)",wind,56290,56290-1A,1,0,0,retain_native_P_Q_bounds_status_and_explicit_voltage_policy,canonical_fuel_type_and_RAW_bus_unit_ID,395,0,148
152,395,3,PERFORM2019:GEN:395:3,native_generation,E,1,1,154,0,395,90.423363,-17.395757,0.7,91.000003,-50.099999,63.700002,1.02,"WT (Wind Turbine)",wind,56290,56290-3,1,0,0,retain_native_P_Q_bounds_status_and_explicit_voltage_policy,canonical_fuel_type_and_RAW_bus_unit_ID,395,0,149
153,395,4,PERFORM2019:GEN:395:4,native_generation,E,1,1,155,0,395,136.131895,-17.395757,1.1,137,-75.400001,95.899999,1.02,"WT (Wind Turbine)",wind,56290,56290-1,1,0,0,retain_native_P_Q_bounds_status_and_explicit_voltage_policy,canonical_fuel_type_and_RAW_bus_unit_ID,395,0,150
154,399,1,PERFORM2019:GEN:399:1,native_generation,E,1,1,156,0,399,73.531085,4.262559,0,74.000001,-40.700001,51.800001,1.02,"WT (Wind Turbine)",wind,57287,57287-1,1,0,0,retain_native_P_Q_bounds_status_and_explicit_voltage_policy,canonical_fuel_type_and_RAW_bus_unit_ID,399,0,151
155,405,1,PERFORM2019:GEN:405:1,native_generation,E,1,1,157,0,405,25.485721,-3.762511,1,25.999999,-14.300001,18.2,1.02,"HY (Hydro)",hydro,2613,2613-1,1,0,0,retain_native_P_Q_bounds_status_and_explicit_voltage_policy,canonical_fuel_type_and_RAW_bus_unit_ID,405,0,152
156,406,1,PERFORM2019:GEN:406:1,native_generation,E,1,1,158,0,406,14.703302,-1.371508,1,15.000001,-8.3,10.5,1.02,"HY (Hydro)",hydro,2547,2547-1,1,0,0,retain_native_P_Q_bounds_status_and_explicit_voltage_policy,canonical_fuel_type_and_RAW_bus_unit_ID,406,0,153
157,407,1,PERFORM2019:GEN:407:1,native_generation,E,1,1,159,0,407,24.5055,-3.852525,1,25,-13.8,17.5,1.02,"HY (Hydro)",hydro,2600,2600-1,1,0,0,retain_native_P_Q_bounds_status_and_explicit_voltage_policy,canonical_fuel_type_and_RAW_bus_unit_ID,407,0,154
158,408,1,PERFORM2019:GEN:408:1,native_generation,E,1,1,160,0,408,23.525281,-3.517215,1,23.999999,-13.2,16.8,1.02,"HY (Hydro)",hydro,2562,2562-1,1,0,0,retain_native_P_Q_bounds_status_and_explicit_voltage_policy,canonical_fuel_type_and_RAW_bus_unit_ID,408,0,155
159,409,1,PERFORM2019:GEN:409:1,native_generation,E,1,1,161,0,409,20.584621,1.914681,1,20.999999,-11.6,14.7,1.02,"HY (Hydro)",hydro,2611,2611-1,1,0,0,retain_native_P_Q_bounds_status_and_explicit_voltage_policy,canonical_fuel_type_and_RAW_bus_unit_ID,409,0,156
160,463,1,PERFORM2019:GEN:463:1,native_generation,F,1,1,162,0,463,1.274286,-0.163852,0.2,1.3,-0.7,0.9,1.02,"HY (Hydro)",hydro,2609,2609-6,1,0,0,retain_native_P_Q_bounds_status_and_explicit_voltage_policy,canonical_fuel_type_and_RAW_bus_unit_ID,463,0,157
161,463,2,PERFORM2019:GEN:463:2,native_generation,F,1,1,163,0,463,6.861541,-0.163852,1,7,-3.9,4.9,1.02,"HY (Hydro)",hydro,2609,2609-1,1,0,0,retain_native_P_Q_bounds_status_and_explicit_voltage_policy,canonical_fuel_type_and_RAW_bus_unit_ID,463,0,158
162,463,3,PERFORM2019:GEN:463:3,native_generation,F,1,1,164,0,463,6.861541,-0.163852,1,7,-3.9,4.9,1.02,"HY (Hydro)",hydro,2609,2609-2,1,0,0,retain_native_P_Q_bounds_status_and_explicit_voltage_policy,canonical_fuel_type_and_RAW_bus_unit_ID,463,0,159
163,463,4,PERFORM2019:GEN:463:4,native_generation,F,1,1,165,0,463,6.861541,-0.163852,1,7,-3.9,4.9,1.02,"HY (Hydro)",hydro,2609,2609-3,1,0,0,retain_native_P_Q_bounds_status_and_explicit_voltage_policy,canonical_fuel_type_and_RAW_bus_unit_ID,463,0,160
164,463,5,PERFORM2019:GEN:463:5,native_generation,F,1,1,166,0,463,6.861541,-0.163852,1,7,-3.9,4.9,1.02,"HY (Hydro)",hydro,2609,2609-4,1,0,0,retain_native_P_Q_bounds_status_and_explicit_voltage_policy,canonical_fuel_type_and_RAW_bus_unit_ID,463,0,161
165,463,6,PERFORM2019:GEN:463:6,native_generation,F,1,1,167,0,463,6.861541,-0.163852,1,7,-3.9,4.9,1.02,"HY (Hydro)",hydro,2609,2609-5,1,0,0,retain_native_P_Q_bounds_status_and_explicit_voltage_policy,canonical_fuel_type_and_RAW_bus_unit_ID,463,0,162
166,469,1,PERFORM2019:GEN:469:1,native_generation,F,1,1,168,0,469,14.308752,5.475864,2,14.399999,-7.9,10.1,1.02,"ST (Steam Turbine)",other,10503,10503-GEN1,1,0,0,retain_native_P_Q_bounds_status_and_explicit_voltage_policy,canonical_fuel_type_and_RAW_bus_unit_ID,469,0,163
167,474,1,PERFORM2019:GEN:474:1,native_generation,F,1,1,169,0,474,8.821981,6.3,4,9,-5,6.3,1.02,"HY (Hydro)",hydro,2612,2612-8,1,0,0,retain_native_P_Q_bounds_status_and_explicit_voltage_policy,canonical_fuel_type_and_RAW_bus_unit_ID,474,0,164
168,474,2,PERFORM2019:GEN:474:2,native_generation,F,1,1,170,0,474,46.070346,19.382879,8,47,-25.9,32.9,1.02,"HY (Hydro)",hydro,2612,2612-9,1,0,0,retain_native_P_Q_bounds_status_and_explicit_voltage_policy,canonical_fuel_type_and_RAW_bus_unit_ID,474,0,165
169,492,1,PERFORM2019:GEN:492:1,native_generation,F,0,0,173,0,492,0,0,2,42.1,-23.199999,29.499999,1.02,"ST (Steam Turbine)",dfo,54099,54099-GEN1,1,0,0,retain_native_P_Q_bounds_status_and_explicit_voltage_policy,canonical_fuel_type_and_RAW_bus_unit_ID,492,0,166
170,508,C1,PERFORM2019:GEN:508:C1,native_generation,F,0,0,174,0,508,0,0,56,107.200003,-75.040001,80.400002,1.02,"CC (Combined Cycle Generic)",ng,10725,10725_F801,1,0,0,retain_native_P_Q_bounds_status_and_explicit_voltage_policy,canonical_fuel_type_and_RAW_bus_unit_ID,508,0,167
171,508,C2,PERFORM2019:GEN:508:C2,native_generation,F,1,1,175,0,508,338.333488,-22.136131,100.999999,338.800001,-237.159991,254.099989,1.02,"CC (Combined Cycle Generic)",ng,10725,10725_F802,1,0,0,retain_native_P_Q_bounds_status_and_explicit_voltage_policy,canonical_fuel_type_and_RAW_bus_unit_ID,508,0,168
172,526,1,PERFORM2019:GEN:526:1,native_generation,E,1,1,177,0,526,17.643961,2.042538,1,18.000001,-9.9,12.6,1.02,"HY (Hydro)",hydro,2627,2627-GRHM,1,0,0,retain_native_P_Q_bounds_status_and_explicit_voltage_policy,canonical_fuel_type_and_RAW_bus_unit_ID,526,0,169
173,535,1,PERFORM2019:GEN:535:1,native_generation,G,1,1,178,0,535,41.634494,-23,5,41.9,-23,29.300001,1.02,"GT (Gas Turbine)",dfo,2632,2632-SHOE,1,0,0,retain_native_P_Q_bounds_status_and_explicit_voltage_policy,canonical_fuel_type_and_RAW_bus_unit_ID,535,0,170
174,535,C1,PERFORM2019:GEN:535:C1,native_generation,G,1,1,179,0,535,769.999981,-65.95515,385.99999,769.999981,-538.999987,577.50001,1.02,"CC (Combined Cycle Generic)",ng,56940,56940_G921,1,0,0,retain_native_P_Q_bounds_status_and_explicit_voltage_policy,canonical_fuel_type_and_RAW_bus_unit_ID,535,0,171
175,546,1,PERFORM2019:GEN:546:1,native_generation,G,1,1,181,0,546,46.205348,32.600001,5,46.5,-25.600001,32.600001,1.02,"GT (Gas Turbine)",dfo,2628,2628-GEN1,1,0,0,retain_native_P_Q_bounds_status_and_explicit_voltage_policy,canonical_fuel_type_and_RAW_bus_unit_ID,546,0,172
176,547,1,PERFORM2019:GEN:547:1,native_generation,I,0,0,182,0,547,0,0,0.1,0.2,-0.1,0.1,1.02,"IC (Internal Combustion)",dfo,62423,62423-778NG,1,0,0,retain_native_P_Q_bounds_status_and_explicit_voltage_policy,canonical_fuel_type_and_RAW_bus_unit_ID,547,0,173
177,547,2,PERFORM2019:GEN:547:2,native_generation,I,0,0,186,0,547,0,0,0.3,0.4,-0.2,0.3,1.02,"IC (Internal Combustion)",dfo,62423,62423-777NG,1,0,0,retain_native_P_Q_bounds_status_and_explicit_voltage_policy,canonical_fuel_type_and_RAW_bus_unit_ID,547,0,174
178,547,3,PERFORM2019:GEN:547:3,native_generation,I,0,0,187,0,547,0,0,0.2,0.8,-0.4,0.6,1.02,"IC (Internal Combustion)",dfo,62423,62423-771NG,1,0,0,retain_native_P_Q_bounds_status_and_explicit_voltage_policy,canonical_fuel_type_and_RAW_bus_unit_ID,547,0,175
179,547,4,PERFORM2019:GEN:547:4,native_generation,I,0,0,188,0,547,0,0,0.1,1,-0.6,0.7,1.02,"IC (Internal Combustion)",dfo,62423,62423-735G2,1,0,0,retain_native_P_Q_bounds_status_and_explicit_voltage_policy,canonical_fuel_type_and_RAW_bus_unit_ID,547,0,176
180,547,5,PERFORM2019:GEN:547:5,native_generation,I,0,0,189,0,547,0,0,0.3,1,-0.6,0.7,1.02,"IC (Internal Combustion)",dfo,62423,62423-777G1,1,0,0,retain_native_P_Q_bounds_status_and_explicit_voltage_policy,canonical_fuel_type_and_RAW_bus_unit_ID,547,0,177
181,547,6,PERFORM2019:GEN:547:6,native_generation,I,0,0,190,0,547,0,0,0.2,1,-0.6,0.7,1.02,"IC (Internal Combustion)",dfo,62423,62423-785G1,1,0,0,retain_native_P_Q_bounds_status_and_explicit_voltage_policy,canonical_fuel_type_and_RAW_bus_unit_ID,547,0,178
182,547,7,PERFORM2019:GEN:547:7,native_generation,I,0,0,191,0,547,0,0,0.1,1.5,-0.8,1.1,1.02,"IC (Internal Combustion)",dfo,62423,62423-735G1,1,0,0,retain_native_P_Q_bounds_status_and_explicit_voltage_policy,canonical_fuel_type_and_RAW_bus_unit_ID,547,0,179
183,547,8,PERFORM2019:GEN:547:8,native_generation,I,0,0,192,0,547,0,0,0.1,1.5,-0.8,1.1,1.02,"IC (Internal Combustion)",dfo,62423,62423-745G1,1,0,0,retain_native_P_Q_bounds_status_and_explicit_voltage_policy,canonical_fuel_type_and_RAW_bus_unit_ID,547,0,180
184,547,9,PERFORM2019:GEN:547:9,native_generation,I,0,0,193,0,547,0,0,0.3,1.5,-0.8,1.1,1.02,"IC (Internal Combustion)",dfo,62423,62423-745G2,1,0,0,retain_native_P_Q_bounds_status_and_explicit_voltage_policy,canonical_fuel_type_and_RAW_bus_unit_ID,547,0,181
185,547,10,PERFORM2019:GEN:547:10,native_generation,I,0,0,183,0,547,0,0,0.3,2,-1.1,1.4,1.02,"IC (Internal Combustion)",dfo,62423,62423-795G1,1,0,0,retain_native_P_Q_bounds_status_and_explicit_voltage_policy,canonical_fuel_type_and_RAW_bus_unit_ID,547,0,182
186,547,11,PERFORM2019:GEN:547:11,native_generation,I,0,0,184,0,547,0,0,0.3,2,-1.1,1.4,1.02,"IC (Internal Combustion)",dfo,62423,62423-795G2,1,0,0,retain_native_P_Q_bounds_status_and_explicit_voltage_policy,canonical_fuel_type_and_RAW_bus_unit_ID,547,0,183
187,547,12,PERFORM2019:GEN:547:12,native_generation,I,0,0,185,0,547,0,0,0.3,2.5,-1.4,1.8,1.02,"IC (Internal Combustion)",dfo,62423,62423-765G1,1,0,0,retain_native_P_Q_bounds_status_and_explicit_voltage_policy,canonical_fuel_type_and_RAW_bus_unit_ID,547,0,184
188,552,1,PERFORM2019:GEN:552:1,native_generation,K,1,1,194,0,552,15.898612,-8.8,10.6,16,-8.8,11.2,1.01,"GT (Gas Turbine)",dfo,2517,2517-GT1,1,0,0,retain_native_P_Q_bounds_status_and_explicit_voltage_policy,canonical_fuel_type_and_RAW_bus_unit_ID,552,0,185
189,552,2,PERFORM2019:GEN:552:2,native_generation,K,0,0,195,0,552,0,0,37,52.999997,-29.2,37.099999,1.01,"GT (Gas Turbine)",ng,2517,2517-GT2,1,0,0,retain_native_P_Q_bounds_status_and_explicit_voltage_policy,canonical_fuel_type_and_RAW_bus_unit_ID,552,0,186
190,552,3,PERFORM2019:GEN:552:3,native_generation,K,0,0,196,0,552,0,0,37,52.999997,-29.2,37.099999,1.01,"GT (Gas Turbine)",ng,2517,2517-GT3,1,0,0,retain_native_P_Q_bounds_status_and_explicit_voltage_policy,canonical_fuel_type_and_RAW_bus_unit_ID,552,0,187
191,552,4,PERFORM2019:GEN:552:4,native_generation,K,1,1,197,0,552,186.808717,-99.000371,15.000001,188,-103.400004,131.599998,1.01,"ST (Steam Turbine)",ng,2517,2517-3,1,0,0,retain_native_P_Q_bounds_status_and_explicit_voltage_policy,canonical_fuel_type_and_RAW_bus_unit_ID,552,0,188
192,552,5,PERFORM2019:GEN:552:5,native_generation,K,1,1,198,0,552,186.808717,-99.000371,15.000001,188,-103.400004,131.599998,1.01,"ST (Steam Turbine)",ng,2517,2517-4,1,0,0,retain_native_P_Q_bounds_status_and_explicit_voltage_policy,canonical_fuel_type_and_RAW_bus_unit_ID,552,0,189
193,554,C1,PERFORM2019:GEN:554:C1,native_generation,K,1,1,199,0,554,229.999995,-199.677372,229.999995,348.899984,-244.230008,261.675,1.01,"CC (Combined Cycle Generic)",ng,56234,56234_CC01,1,0,0,retain_native_P_Q_bounds_status_and_explicit_voltage_policy,canonical_fuel_type_and_RAW_bus_unit_ID,554,0,190
194,556,C1,PERFORM2019:GEN:556:C1,native_generation,J,1,1,200,0,556,528.000021,364.368725,202.999997,528.000021,-369.60001,396.000004,1.02,"CC (Combined Cycle Generic)",ng,56196,56196_CC1,1,0,0,retain_native_P_Q_bounds_status_and_explicit_voltage_policy,canonical_fuel_type_and_RAW_bus_unit_ID,556,0,191
195,557,1,PERFORM2019:GEN:557:1,native_generation,J,1,1,201,0,557,41.634494,6.226598,18.6,41.9,-23,29.300001,1.02,"GT (Gas Turbine)",ng,55243,55243-3-2,1,0,0,retain_native_P_Q_bounds_status_and_explicit_voltage_policy,canonical_fuel_type_and_RAW_bus_unit_ID,557,0,192
196,557,2,PERFORM2019:GEN:557:2,native_generation,J,1,1,205,0,557,41.634494,6.226598,18.6,41.9,-23,29.300001,1.02,"GT (Gas Turbine)",ng,55243,55243-4-1,1,0,0,retain_native_P_Q_bounds_status_and_explicit_voltage_policy,canonical_fuel_type_and_RAW_bus_unit_ID,557,0,193
197,557,3,PERFORM2019:GEN:557:3,native_generation,J,1,1,206,0,557,41.634494,6.226598,18.6,41.9,-23,29.300001,1.02,"GT (Gas Turbine)",ng,55243,55243-3-4,1,0,0,retain_native_P_Q_bounds_status_and_explicit_voltage_policy,canonical_fuel_type_and_RAW_bus_unit_ID,557,0,194
198,557,4,PERFORM2019:GEN:557:4,native_generation,J,1,1,207,0,557,41.634494,6.226598,18.6,41.9,-23,29.300001,1.02,"GT (Gas Turbine)",ng,55243,55243-3-3,1,0,0,retain_native_P_Q_bounds_status_and_explicit_voltage_policy,canonical_fuel_type_and_RAW_bus_unit_ID,557,0,195
199,557,5,PERFORM2019:GEN:557:5,native_generation,J,1,1,208,0,557,41.634494,6.226598,18.6,41.9,-23,29.300001,1.02,"GT (Gas Turbine)",ng,55243,55243-2-2,1,0,0,retain_native_P_Q_bounds_status_and_explicit_voltage_policy,canonical_fuel_type_and_RAW_bus_unit_ID,557,0,196
200,557,6,PERFORM2019:GEN:557:6,native_generation,J,1,1,209,0,557,41.634494,6.226598,18.6,41.9,-23,29.300001,1.02,"GT (Gas Turbine)",ng,55243,55243-2-3,1,0,0,retain_native_P_Q_bounds_status_and_explicit_voltage_policy,canonical_fuel_type_and_RAW_bus_unit_ID,557,0,197
201,557,7,PERFORM2019:GEN:557:7,native_generation,J,1,1,210,0,557,41.634494,6.226598,18.6,41.9,-23,29.300001,1.02,"GT (Gas Turbine)",ng,55243,55243-4-4,1,0,0,retain_native_P_Q_bounds_status_and_explicit_voltage_policy,canonical_fuel_type_and_RAW_bus_unit_ID,557,0,198
202,557,8,PERFORM2019:GEN:557:8,native_generation,J,1,1,211,0,557,41.634494,6.226598,18.6,41.9,-23,29.300001,1.02,"GT (Gas Turbine)",ng,55243,55243-2-4,1,0,0,retain_native_P_Q_bounds_status_and_explicit_voltage_policy,canonical_fuel_type_and_RAW_bus_unit_ID,557,0,199
203,557,9,PERFORM2019:GEN:557:9,native_generation,J,1,1,212,0,557,41.634494,6.226598,18.6,41.9,-23,29.300001,1.02,"GT (Gas Turbine)",ng,55243,55243-3-1,1,0,0,retain_native_P_Q_bounds_status_and_explicit_voltage_policy,canonical_fuel_type_and_RAW_bus_unit_ID,557,0,200
...
